14

 C          0.00000        0.00000        0.74719
 C         -0.00000        0.00000       -0.74719
 C         -0.85488        0.85488        1.40270
 C          0.85488       -0.85488        1.40270
 C          0.85488        0.85488       -1.40270
 C         -0.85488       -0.85488       -1.40270
 H         -0.88685        0.88685        2.47945
 H         -1.51300        1.51300        0.86300
 H         -0.88685       -0.88685       -2.47945
 H         -1.51300       -1.51300       -0.86300
 H          0.88685        0.88685       -2.47945
 H          1.51300        1.51300       -0.86300
 H          0.88685       -0.88685        2.47945
 H          1.51300       -1.51300        0.86300
