14

 C                 -2.57154992    1.20550802   -1.08518624
 C                 -1.37913604    0.60231910   -1.17047231
 H                 -3.02409265    1.43442917   -0.13334917
 H                 -3.12478912    1.48536702   -1.96551960
 H                 -0.94249303    0.38144091   -2.13154184
 C                 -0.65494602    0.23598372    0.00000000
 C                  0.56169250   -0.37945936    0.00000000
 H                 -1.11474886    0.46857744    0.95104255
 H                  0.63538512   -1.45559078    0.00000000
 C                  1.72702918    0.39347894    0.00000000
 H                  1.64927368    1.47030094    0.00000000
 N                  2.93638619   -0.08230066    0.00000000
 H                  3.74094162    0.52062663    0.00000000
 H                  3.11662244   -1.07304230    0.00000000
