14

 C          0.00000       -0.00000        0.75131
 C          0.00000       -0.00000       -0.75131
 C         -0.00000        1.18688        1.45180
 C          0.00000       -1.18688        1.45180
 C         -0.00000        1.18688       -1.45180
 C          0.00000       -1.18688       -1.45180
 H          0.00000        1.17325        2.52816
 H          0.00000        2.15300        0.98519
 H         -0.00000       -1.17325       -2.52816
 H         -0.00000       -2.15300       -0.98519
 H          0.00000        1.17325       -2.52816
 H          0.00000        2.15300       -0.98519
 H         -0.00000       -1.17325        2.52816
 H         -0.00000       -2.15300        0.98519
