14
Frame 0
 C          0.000000000000       -0.000000000000        0.751310000000
 C          0.000000000000       -0.000000000000       -0.751310000000
 C         -0.000000000000        1.186880000000        1.451800000000
 C          0.000000000000       -1.186880000000        1.451800000000
 C         -0.000000000000        1.186880000000       -1.451800000000
 C          0.000000000000       -1.186880000000       -1.451800000000
 H          0.000000000000        1.173250000000        2.528160000000
 H          0.000000000000        2.153000000000        0.985190000000
 H         -0.000000000000       -1.173250000000       -2.528160000000
 H         -0.000000000000       -2.153000000000       -0.985190000000
 H          0.000000000000        1.173250000000       -2.528160000000
 H          0.000000000000        2.153000000000       -0.985190000000
 H         -0.000000000000       -1.173250000000        2.528160000000
 H         -0.000000000000       -2.153000000000        0.985190000000
14
Frame 1
 C          0.000280611555       -0.000029616155        0.751125960704
 C          0.000977601489        0.000012787084       -0.751161664628
 C         -0.035940229519        1.185726594001        1.452779334845
 C          0.033403292500       -1.185766341210        1.452941157664
 C          0.039168171378        1.185657034748       -1.452864916535
 C         -0.036661897744       -1.185590615573       -1.452944489781
 H         -0.016847220138        1.173328586155        2.529060061507
 H         -0.072618478201        2.152279253110        0.987995081414
 H         -0.018761634695       -1.173280796626       -2.529219349902
 H         -0.064598739640       -2.152397258677       -0.988447058465
 H          0.013030740147        1.173547328222       -2.528991752954
 H          0.072839842480        2.152157200628       -0.988055126752
 H          0.020190269086       -1.173111357494        2.529294208691
 H          0.065537671303       -2.152532798213        0.988488554194
14
Frame 2
 C          0.002047073988       -0.000002258650        0.750905954923
 C          0.001202453193        0.000043773477       -0.751054938663
 C         -0.047022680885        1.184754269477        1.453626421805
 C          0.043216371014       -1.184795811338        1.454044443546
 C          0.057726724932        1.184336143304       -1.453987529304
 C         -0.053223604011       -1.184245953134       -1.454084984623
 H         -0.020279524130        1.173626065773        2.529804496122
 H         -0.110802554421        2.150840340911        0.990704225382
 H         -0.022152457400       -1.173633675588       -2.530125432545
 H         -0.094919874407       -2.151621797623       -0.991644377950
 H          0.010325311801        1.174413118154       -2.529456701179
 H          0.110562239946        2.150928851363       -0.990864483912
 H          0.023278640280       -1.173100362043        2.530352531094
 H          0.100041880098       -2.151542704083        0.991780375305
14
Frame 3
 C          0.001995398478        0.000017843653        0.750702389495
 C          0.001461456939        0.000081017452       -0.750926810391
 C         -0.054094305121        1.183874073712        1.454570658710
 C          0.050624300520       -1.183822963455        1.455149105886
 C          0.070374267841        1.183068768886       -1.455127059047
 C         -0.069890415485       -1.182685370031       -1.455213450944
 H         -0.021767243808        1.173888032348        2.530645669315
 H         -0.133881239935        2.149784525280        0.993738855129
 H         -0.024657672872       -1.174056428777       -2.530882662727
 H         -0.109166699087       -2.151358054304       -0.995080387145
 H          0.011409872663        1.175033201104       -2.530121786818
 H          0.131917216501        2.150133364966       -0.993928883641
 H          0.024439153039       -1.173180308523        2.531392249191
 H          0.121235910327       -2.150777702310        0.995082112986
14
Frame 4
 C          0.000613680934       -0.000023351733        0.750528520809
 C          0.001410765242        0.000087788919       -0.750768720505
 C         -0.067619723363        1.182625019975        1.455531409111
 C          0.064340706282       -1.182620918612        1.456178869978
 C          0.087304160149        1.181396311263       -1.456152096012
 C         -0.088666237553       -1.180872863075       -1.456241113594
 H         -0.022062674852        1.174425858534        2.531299693033
 H         -0.149542178762        2.149278157680        0.996415550580
 H         -0.025821773792       -1.174941307698       -2.531211315372
 H         -0.122291254155       -2.151004633555       -0.998419290328
 H          0.015083685303        1.175801627591       -2.530513599712
 H          0.144090971464        2.149769329934       -0.996802358844
 H          0.025939838823       -1.173567110859        2.532251350526
 H          0.137220034280       -2.150353908363        0.997903100329
14
Frame 5
 C         -0.001588438850       -0.000084623557        0.750415098942
 C          0.000983072629        0.000056995210       -0.750545211201
 C         -0.089710261575        1.180851546004        1.456371086607
 C          0.086477669740       -1.180864643469        1.457099770506
 C          0.109453190291        1.179138084385       -1.456915616968
 C         -0.112184648827       -1.178612223405       -1.456994137522
 H         -0.019899452570        1.175872777991        2.531287857557
 H         -0.166089610070        2.148724384605        0.998419438187
 H         -0.028627879693       -1.176359527720       -2.530872656896
 H         -0.135149294174       -2.150388246434       -1.001545251636
 H          0.017817550190        1.177246880336       -2.530158324937
 H          0.159502823312        2.148894297058       -0.999160139671
 H          0.023877896674       -1.174784149434        2.532480920330
 H          0.155137382923       -2.149691551570        1.000117166703
14
Frame 6
 C         -0.002504303137       -0.000156706205        0.750352007765
 C          0.000208589754       -0.000000280220       -0.750259257348
 C         -0.119590849507        1.178171754337        1.456877308208
 C          0.115660976385       -1.178245198592        1.457696817427
 C          0.138199829118        1.175987037410       -1.457276633240
 C         -0.139444183832       -1.175664624339       -1.457261515734
 H         -0.027903784210        1.178024612707        2.530256084080
 H         -0.189124341132        2.147120821392        0.999617539259
 H         -0.038866209515       -1.178162790549       -2.529786061141
 H         -0.159257821783       -2.148544707484       -1.003991906963
 H          0.026742724424        1.179224353793       -2.528961435430
 H          0.183846607652        2.146827916853       -1.000692782369
 H          0.030705747105       -1.176687739188        2.531810403544
 H          0.181327018678       -2.147894449914        1.001619431942
14
Frame 7
 C         -0.001544837248       -0.000307094373        0.750204318858
 C          0.001770879477       -0.000070406812       -0.750059217748
 C         -0.153462469975        1.174057363824        1.456663899593
 C          0.150121206865       -1.174340302427        1.457555967717
 C          0.168831262853        1.172036470270       -1.456918471049
 C         -0.168343439963       -1.171630112202       -1.457162611532
 H         -0.041354652999        1.180961754773        2.527981899584
 H         -0.232036771217        2.142314568404        0.999542742533
 H         -0.049732717769       -1.180952475783       -2.527746267536
 H         -0.212425440223       -2.143604100491       -1.003722446051
 H          0.042917179656        1.181816278683       -2.527003302717
 H          0.224143401350        2.142570543049       -1.000700949506
 H          0.043897075375       -1.179648061089        2.529774177923
 H          0.227219323818       -2.143204425825        1.001590259932
14
Frame 8
 C         -0.000415033946       -0.000285722981        0.750030549931
 C          0.001888227469       -0.000100533037       -0.749888849721
 C         -0.193683436835        1.168449995973        1.455575170741
 C          0.191863742635       -1.168455577270        1.456535665588
 C          0.206680661616        1.166245552609       -1.455956519941
 C         -0.206415551875       -1.165822626019       -1.456035143535
 H         -0.063324834659        1.184791169545        2.524454185945
 H         -0.294569787200        2.133724404409        0.996211108483
 H         -0.068657586209       -1.185228951253       -2.523955993858
 H         -0.282082806569       -2.134748301621       -0.999614877686
 H          0.063223250136        1.185907523596       -2.523212716423
 H          0.288709665411        2.133971613213       -0.997675253742
 H          0.061408183155       -1.184470661109        2.525473369851
 H          0.295375306871       -2.133977886056        0.998059304367
14
Frame 9
 C         -0.001116169675       -0.000321821734        0.749954978802
 C          0.001128907817       -0.000085813641       -0.749645927962
 C         -0.230730352312        1.162169402259        1.454450265686
 C          0.229213608155       -1.162158750181        1.455335377755
 C          0.240578883459        1.160174070147       -1.454595403704
 C         -0.240970816697       -1.159722037236       -1.454697029767
 H         -0.088131275439        1.187053182711        2.521625915872
 H         -0.346596017721        2.125000492786        0.993433757533
 H         -0.094150018565       -1.187066155039       -2.521282977931
 H         -0.338176199381       -2.125810649267       -0.996153384587
 H          0.091427285860        1.187229794072       -2.520899390193
 H          0.341082313190        2.125242575051       -0.994577658027
 H          0.085085045499       -1.187281523379        2.522330669986
 H          0.351354805810       -2.124422766549        0.994720806536
14
Frame 10
 C         -0.000794197669       -0.000321537747        0.749858378121
 C          0.001047892331       -0.000075661539       -0.749459597424
 C         -0.270519834594        1.154491748239        1.452586791075
 C          0.269329611923       -1.154548493938        1.453430805777
 C          0.278322941990        1.152699404719       -1.452628995524
 C         -0.278837190038       -1.152160889784       -1.452703336907
 H         -0.142295885717        1.182230660752        2.521563615322
 H         -0.397094169887        2.115169136853        0.989591018092
 H         -0.147058866036       -1.182083178275       -2.521228726863
 H         -0.391447400545       -2.115715470846       -0.991984132984
 H          0.146060581334        1.181910503692       -2.521135874375
 H          0.391876954724        2.115550970763       -0.990676090199
 H          0.139333439277       -1.182664012291        2.522210935140
 H          0.402076122909       -2.114483180598        0.990575210748
14
Frame 11
 C         -0.000219671814       -0.000264389917        0.749717794742
 C          0.001407753903       -0.000109006179       -0.749321890230
 C         -0.307316419505        1.146206342869        1.450471547299
 C          0.306546767925       -1.146269122500        1.451399683384
 C          0.313096106765        1.144780854543       -1.450655681228
 C         -0.313462672530       -1.144181734576       -1.450544282559
 H         -0.197999847041        1.174443437293        2.521603318300
 H         -0.440377570839        2.105508067359        0.986141348419
 H         -0.201437171539       -1.174233924261       -2.521368890878
 H         -0.436289773606       -2.105846702768       -0.988273381703
 H          0.199990105391        1.174190671061       -2.521406040817
 H          0.436861415536        2.105750433821       -0.987160881376
 H          0.194597605977       -1.175022301987        2.522264753903
 H          0.444603371376       -2.104952624757        0.987132602744
14
Frame 12
 C          0.000629207574       -0.000130528980        0.749521904116
 C          0.001634373803       -0.000038890767       -0.749244944586
 C         -0.345007268492        1.136602888587        1.447854433606
 C          0.345424429555       -1.136635472385        1.448706041666
 C          0.349197913177        1.135704795996       -1.448242901706
 C         -0.349965988987       -1.134723929136       -1.447936840970
 H         -0.267277526784        1.160447698909        2.521894297349
 H         -0.486748496670        2.093999717449        0.982011795381
 H         -0.268205092049       -1.160740448903       -2.521639403973
 H         -0.482913415500       -2.094295898868       -0.983930630452
 H          0.267266056570        1.160736978439       -2.521989207268
 H          0.484139585792        2.094387010811       -0.982930446013
 H          0.265119263255       -1.160968063331        2.522599875275
 H          0.486706958756       -2.094345857822        0.983326027574
14
Frame 13
 C          0.001353888044       -0.000026032257        0.749347838536
 C          0.002015071232        0.000001770226       -0.749138306466
 C         -0.378777546300        1.126854201567        1.445399253917
 C          0.379483455617       -1.127125719112        1.446169098597
 C          0.381758240129        1.126575070408       -1.445910607951
 C         -0.382893696004       -1.125098896029       -1.445440713900
 H         -0.324576476555        1.147234071275        2.520968102733
 H         -0.533225606228        2.081448199804        0.977557607463
 H         -0.323955059229       -1.147894656943       -2.520783139162
 H         -0.529380775512       -2.081792011191       -0.979327496406
 H          0.324402599107        1.147780627536       -2.521339554852
 H          0.530067562410        2.082362478799       -0.978448023137
 H          0.324652452835       -1.147378084013        2.521740451224
 H          0.529075890456       -2.082941020070        0.979205489406
14
Frame 14
 C          0.001901002191        0.000116476269        0.749214139915
 C          0.002205006066        0.000036187059       -0.748995067964
 C         -0.411507475832        1.116553396670        1.442758728035
 C          0.412682837203       -1.116844142246        1.443528357581
 C          0.413878401812        1.116614371979       -1.443375134909
 C         -0.415104508135       -1.114857916131       -1.442686689770
 H         -0.381003363450        1.132296230799        2.519440282198
 H         -0.586246056385        2.066095246491        0.971492263102
 H         -0.380676226899       -1.132844977854       -2.519289406483
 H         -0.581911818746       -2.066661359698       -0.973092676367
 H          0.381265480853        1.132762524243       -2.520049885226
 H          0.582669513573        2.067455792031       -0.972493005241
 H          0.381289249653       -1.132545961046        2.520216792088
 H          0.580557958097       -2.068175868565        0.973331303043
14
Frame 15
 C          0.002338025620        0.000247572429        0.749061774211
 C          0.002387508818        0.000056493029       -0.748861497875
 C         -0.441706268702        1.106144748809        1.440225002122
 C          0.443374824014       -1.106390467324        1.441010833151
 C          0.443899298395        1.106388816586       -1.440973306450
 C         -0.444892716751       -1.104488590489       -1.440087618102
 H         -0.433683865964        1.116407691005        2.517351289636
 H         -0.633725627919        2.051018399927        0.966017084018
 H         -0.432775234513       -1.117204383337       -2.517240476504
 H         -0.629524480305       -2.051632536671       -0.967435644168
 H          0.433181787064        1.117293843280       -2.518166551333
 H          0.630291748494        2.052618491935       -0.967159197527
 H          0.433878050010       -1.116849838492        2.518167032801
 H          0.626956951740       -2.053610240689        0.968091276021
14
Frame 16
 C          0.002145241632        0.000303179205        0.748883459634
 C          0.001983235074        0.000123013730       -0.748737666885
 C         -0.469481333990        1.095826545279        1.438043030634
 C          0.471135682458       -1.095971804822        1.438699229259
 C          0.471080594935        1.096178090109       -1.438801656454
 C         -0.472082984864       -1.094342341190       -1.437898520411
 H         -0.456955289421        1.110369621955        2.515147387890
 H         -0.668189775840        2.038911939339        0.962751438400
 H         -0.455833730653       -1.111340946033       -2.514981841093
 H         -0.664319067039       -2.039477244428       -0.963979308862
 H          0.456279226087        1.111372539686       -2.515909525996
 H          0.665519188291        2.040279948733       -0.963689833782
 H          0.457110207818       -1.110818513801        2.515811548392
 H          0.661608805512       -2.041414027762        0.964662259273
14
Frame 17
 C          0.001530573852        0.000271805285        0.748711960032
 C          0.001209736891        0.000225348255       -0.748596911777
 C         -0.495894701046        1.085336899993        1.436070391824
 C          0.497101514136       -1.085420110370        1.436470120310
 C          0.497013471843        1.085610406571       -1.436645664676
 C         -0.498095150429       -1.083995738817       -1.435920103423
 H         -0.471178726521        1.107722014110        2.512864915079
 H         -0.695181060460        2.028604929759        0.961075285275
 H         -0.469503140719       -1.109008352889       -2.512599446236
 H         -0.692390867335       -2.028866341535       -0.962029442963
 H          0.470678046829        1.108601040022       -2.513435973581
 H          0.693325961976        2.029510572516       -0.961611253811
 H          0.471408770754       -1.108088891579        2.513276465435
 H          0.689975570230       -2.030503581320        0.962369658511
14
Frame 18
 C          0.001016415578        0.000238853164        0.748523106603
 C          0.000639437037        0.000260589633       -0.748469583491
 C         -0.521598783499        1.074453850913        1.434035779035
 C          0.522414344244       -1.074408743269        1.434339608259
 C          0.522283416463        1.074591558382       -1.434566469065
 C         -0.523264361054       -1.073339202518       -1.433953690532
 H         -0.484523163223        1.105534647643        2.510341031788
 H         -0.720863595455        2.018281986054        0.959761096723
 H         -0.482208014528       -1.107132351831       -2.510061564332
 H         -0.719202737856       -2.018222168101       -0.960435051290
 H          0.483029293999        1.106696715424       -2.510793281883
 H          0.720676072395        2.018404627899       -0.959897813692
 H          0.484015042456       -1.105986432318        2.510625387188
 H          0.717586633442       -2.019373931075        0.960551444689
14
Frame 19
 C          0.000540288818        0.000117662391        0.748340918062
 C          0.000405396355        0.000168795123       -0.748337595150
 C         -0.547300793176        1.062846529288        1.431857907983
 C          0.547344909823       -1.062899751157        1.432285528683
 C          0.547635040985        1.062894454909       -1.432377847820
 C         -0.548038055082       -1.062144268111       -1.432002356972
 H         -0.497168414806        1.103953691239        2.507521309952
 H         -0.751323798712        2.005902098530        0.957392639917
 H         -0.495144820853       -1.105248738338       -2.507379605676
 H         -0.750399937699       -2.005716148290       -0.958071566689
 H          0.495111893776        1.105246883949       -2.507875813094
 H          0.752309322077        2.005424431161       -0.957270644664
 H          0.496356960674       -1.104168537339        2.507872859313
 H          0.749672007821       -2.006377103356        0.958044266153
14
Frame 20
 C          0.000315455928        0.000061706336        0.748132615463
 C          0.000236704526        0.000165854478       -0.748240413149
 C         -0.573230754412        1.050295411371        1.429622004651
 C          0.572944762004       -1.050464286427        1.429998930756
 C          0.573192087360        1.050478805798       -1.430143653203
 C         -0.573480164513       -1.049827774473       -1.429936884657
 H         -0.510630453028        1.102316943705        2.504479864001
 H         -0.792777356028        1.989065669930        0.952689524311
 H         -0.507964431266       -1.103912040051       -2.504380873956
 H         -0.792742045733       -1.988667350713       -0.953117228161
 H          0.508469381860        1.103804724842       -2.504670226290
 H          0.794092082182        1.988440093716       -0.952321234129
 H          0.510345099445       -1.102202211991        2.504757669033
 H          0.791229631675       -1.989555546520        0.953129905329
14
Frame 21
 C          0.000407604777        0.000182513839        0.747980814649
 C          0.000040342080        0.000294551861       -0.748100644901
 C         -0.599724689545        1.036621632753        1.427340225415
 C          0.600041740048       -1.036532793010        1.427457017671
 C          0.599970151794        1.036669626702       -1.427809973190
 C         -0.600592323392       -1.035845081398       -1.427467052337
 H         -0.527701806099        1.099628631654        2.500842922277
 H         -0.848558589574        1.965776661575        0.944695095754
 H         -0.522418251657       -1.102838208377       -2.500716795929
 H         -0.850833173374       -1.964531457211       -0.944140888127
 H          0.524104368822        1.101863560412       -2.501151771941
 H          0.850588715036        1.964800631622       -0.944216838358
 H          0.526038239671       -1.100432437576        2.501040056906
 H          0.848637671413       -1.965657832847        0.944247832112
14
Frame 22
 C          0.000313026387        0.000101711189        0.747906690193
 C          0.000340283770        0.000024978552       -0.747925848152
 C         -0.629848751367        1.020358392510        1.424179080639
 C          0.629822865122       -1.020156375997        1.424838557532
 C          0.629691009489        1.020437188273       -1.424750223156
 C         -0.629228215483       -1.020447483592       -1.424470046842
 H         -0.563258135807        1.087083656368        2.497722266816
 H         -0.915957973407        1.934977545617        0.934737612650
 H         -0.563648939898       -1.086581706624       -2.498124882224
 H         -0.915105895601       -1.935230401432       -0.934687732807
 H          0.562149811730        1.087508131282       -2.498215959417
 H          0.917305223961        1.934301176833       -0.934562344342
 H          0.560636250159       -1.087835755394        2.498233971598
 H          0.916789440945       -1.934541057584        0.935118857512
14
Frame 23
 C          0.000130997298        0.000033700834        0.747779832494
 C          0.000177626592        0.000055471273       -0.747797040816
 C         -0.659561033010        1.002990460755        1.421318822467
 C          0.659322733458       -1.002969478143        1.421764139902
 C          0.659522373831        1.003017837803       -1.421690499054
 C         -0.659067163558       -1.003031122909       -1.421573042651
 H         -0.592037733915        1.077215742901        2.494408480435
 H         -0.986938115036        1.899196619712        0.924761187503
 H         -0.591149159240       -1.077579503302       -2.494641147535
 H         -0.987272645970       -1.898842669634       -0.924788474993
 H          0.590935354809        1.077835734755       -2.494770197191
 H          0.988008246232        1.898621514021       -0.924506678856
 H          0.590221341265       -1.077808736895        2.494760842529
 H          0.987707177245       -1.898735571170        0.924973775765
14
Frame 24
 C          0.000025384347        0.000044669575        0.747664687828
 C          0.000033536340        0.000110800984       -0.747685364565
 C         -0.690959387279        0.983439067951        1.418190844366
 C          0.690752998954       -0.983352829293        1.418479173692
 C          0.690901272648        0.983438890061       -1.418450485236
 C         -0.690709102225       -0.983335352921       -1.418386485276
 H         -0.629398126740        1.061488941887        2.491299015771
 H         -1.068799293547        1.854644702249        0.912684070965
 H         -0.628227060945       -1.062126880468       -2.491401916645
 H         -1.069133876805       -1.854213342413       -0.912696175638
 H          0.628548317072        1.062049903053       -2.491523563289
 H          1.069749438869        1.854035921340       -0.912402253397
 H          0.627812129587       -1.062102533104        2.491483628309
 H          1.069403769725       -1.854121958900        0.912744823115
14
Frame 25
 C         -0.000034227457        0.000041730399        0.747566597930
 C         -0.000010546098        0.000122705892       -0.747574780688
 C         -0.723220350411        0.961852227644        1.414935799655
 C          0.722999982930       -0.961754474477        1.415146436452
 C          0.723121751483        0.961878005315       -1.415097362785
 C         -0.723009386809       -0.961721406101       -1.415099254204
 H         -0.675961753190        1.037334599930        2.488936403285
 H         -1.150710570968        1.804887331462        0.901635020630
 H         -0.674776976882       -1.037985738754       -2.489019186951
 H         -1.151006754431       -1.804433593752       -0.901679596686
 H          0.675334074176        1.037800380673       -2.489072602459
 H          1.151523318871        1.804239160177       -0.901403975926
 H          0.674546699291       -1.037928701003        2.489065810332
 H          1.151204739495       -1.804332227405        0.901660691415
14
Frame 26
 C         -0.000086466214        0.000009203031        0.747472919379
 C          0.000004761319        0.000086725151       -0.747471992494
 C         -0.756111691292        0.938144146238        1.411662335434
 C          0.755814850221       -0.938091467155        1.411870305301
 C          0.756012942721        0.938174725255       -1.411755336395
 C         -0.755843887234       -0.938057004468       -1.411847041676
 H         -0.726789535759        1.007284292138        2.486744924497
 H         -1.236162551280        1.747686118519        0.890416831108
 H         -0.725814370258       -1.007705795110       -2.486899566818
 H         -1.236280219787       -1.747352447552       -0.890615147625
 H          0.726304777694        1.007674741217       -2.486824463635
 H          1.236856826442        1.747057920443       -0.890236478688
 H          0.725674591434       -1.007656471401        2.486920439136
 H          1.236419971993       -1.747254686306        0.890562272475
14
Frame 27
 C         -0.000091500386        0.000015803344        0.747379811471
 C          0.000010160347        0.000090132986       -0.747377654962
 C         -0.789333984274        0.912311924674        1.408459843580
 C          0.789044092399       -0.912267880225        1.408617574053
 C          0.789284242274        0.912337391802       -1.408493786992
 C         -0.789114441588       -0.912184283155       -1.408627244369
 H         -0.781599748959        0.970432811405        2.484540446477
 H         -1.329093054448        1.678081624094        0.879624127981
 H         -0.780640822114       -0.970855302388       -2.484684674714
 H         -1.329182016545       -1.677753738011       -0.879833129874
 H          0.781364879755        0.970679695824       -2.484574808033
 H          1.329524878410        1.677640103110       -0.879475779494
 H          0.780656136582       -0.970766844599        2.484685376083
 H          1.329171178547       -1.677761438861        0.879759898793
14
Frame 28
 C         -0.000096521921       -0.000000142728        0.747285702568
 C          0.000054866041        0.000044530017       -0.747283564916
 C         -0.822463066161        0.884476119822        1.405409423274
 C          0.822133252536       -0.884471961115        1.405592652643
 C          0.822454855316        0.884484726188       -1.405417324601
 C         -0.822182645968       -0.884404487068       -1.405604496210
 H         -0.834834552554        0.930628595402        2.482025350264
 H         -1.422365536696        1.599393532833        0.870236622164
 H         -0.834109844792       -0.930787534692       -2.482217369841
 H         -1.422342020433       -1.599184365215       -0.870540984165
 H          0.834751196726        0.930749831081       -2.482032296110
 H          1.422633860488        1.599104331314       -0.870156532629
 H          0.834045118100       -0.930828152217        2.482208714490
 H          1.422321039317       -1.599205023620        0.870494103069
14
Frame 29
 C         -0.000093903265       -0.000007192241        0.747189994065
 C          0.000093903265        0.000007192241       -0.747189994065
 C         -0.855030842472        0.854891933646        1.402600783905
 C          0.854678273219       -0.854918937637        1.402799193811
 C          0.855081712522        0.854868065518       -1.402584319842
 C         -0.854729143269       -0.854841061527       -1.402815657873
 H         -0.887135211799        0.886852520371        2.479347065378
 H         -1.513063429194        1.513036709996        0.862824416346
 H         -0.886564773409       -0.886799745785       -2.479569975001
 H         -1.512936545570       -1.512946674534       -0.863204708684
 H          0.887187984240        0.886847478762       -2.479329985608
 H          1.513153460994        1.512963288525       -0.862795277606
 H          0.886512000968       -0.886900253348        2.479552895231
 H          1.512846513770       -1.513053323986        0.863175569944
