14

 C                 -2.08170921    2.17384952    0.00000000
 C                 -0.85079817    1.64676370    0.00000000
 H                 -2.96390035    1.55342030   -0.00000000
 H                 -2.23757596    3.23925416    0.00000000
 H                  0.01966068    2.28347425    0.00000000
 C                 -0.65494602    0.23598372    0.00000000
 C                  0.56169250   -0.37945936    0.00000000
 H                 -1.54403863   -0.38006396   -0.00000000
 H                  0.63538512   -1.45559078    0.00000000
 C                  1.72702918    0.39347894    0.00000000
 H                  1.64927368    1.47030094    0.00000000
 N                  2.93638619   -0.08230066    0.00000000
 H                  3.74094162    0.52062663    0.00000000
 H                  3.11662244   -1.07304230    0.00000000
